// -*- C++ -*-
// File generated by PyFoam - sorry for the ugliness

FoamFile
{
 version 2.0;
 format ascii;
 class volVectorField;
 object U;
}

dimensions [ 0 1 -1 0 0 0 0 ];

internalField uniform (0.8 0 0);

boundaryField
{
  inlet
  {
    type freestreamVelocity;
    freestreamValue $internalField;
  }
  outlet
  {
    type freestreamVelocity;
    freestreamValue $internalField;
  }
  walls
  {
    type noSlip;
  }
  frontAndBack
  {
    type empty;
  }
} 	// ************************************************************************* //

